/*--------------------------------*- C++ -*----------------------------------*\
| =========                 |                                                 |
| \\      /  F ield         | OpenFOAM: The Open Source CFD Toolbox           |
|  \\    /   O peration     | Version:  v1606+                                |
|   \\  /    A nd           | Web:      www.OpenFOAM.com                      |
|    \\/     M anipulation  |                                                 |
\*---------------------------------------------------------------------------*/
FoamFile
{
    version     2.0;
    format      ascii;
    class       volScalarField;
    location    "0/air";
    object      p;
}
// * * * * * * * * * * * * * * * * * * * * * * * * * * * * * * * * * * * * * //

dimensions      [ 1 -1 -2 0 0 0 0 ];

internalField   uniform 100000;

boundaryField
{
    empty1
    {
        type            empty;
    }
    air_top
    {
        type            symmetryPlane;
        value           uniform 100000;
    }
    airinlet
    {
        type            calculated;
        value           uniform 100000;
    }
    airoutlet
    {
        type            calculated;
        value           uniform 100000;
    }
    air_to_solid
    {
        type            calculated;
        value           uniform 100000;
    }
}


// ************************************************************************* //
